resultados/_temp_alt6_1p10/LineSummary.csv
line,maxCurrentA,normAmps,maxLoadingPct,meanLoadingPct,overloadHours
rbt_1607347,93.10367676331867,124.95,74.51274650925865,25.723757185754028,0
sbt_7584,93.10368687523321,163.8,56.839857677187545,19.622611238688943,0
sbt_22840,93.10368224428639,163.8,56.83985484999169,19.62261116262923,0
rbt_630758,31.210218607577357,76.65,40.71783249520855,17.42782157661524,0
rbt_637576,24.785605731823328,61.95,40.009048800360496,14.609399465633794,0
rbt_632607,44.9409154706395,124.95,35.967119224201284,16.929955981946566,0
rbt_606147,25.453601259089023,76.65,33.2075685050085,12.356111897642194,0
rbt_1130761,27.905775403650413,90.3,30.90340576262504,14.5433241715388,0
rbt_637918,17.773663096772644,61.95,28.690335910851722,11.276708006860668,0
rbt_605836,23.68871994467095,90.3,26.233355420455094,12.355149982987356,0
rbt_637360,16.193061857300993,61.95,26.13892148071185,12.280581700088419,0
rbt_1607350,22.028817167415706,90.3,24.395146364801448,8.76502535403206,0
rbt_626476,13.994221420203116,61.95,22.589542244072828,10.628244050861726,0
rbt_606126,13.572930460253614,61.95,21.909492268367416,7.79052262481395,0
rbt_1633671,13.228828191003753,61.95,21.354040663444316,10.055605969280235,0
rbt_3405844,18.963683766030687,90.3,21.00075721598083,7.239105479009848,0
rbt_606143,14.882505696046936,76.65,19.416184861117983,6.8648831863351605,0
rbt_1627323,13.773304561482078,76.65,17.9690861858866,8.453918696277116,0
sbt_34378,22.612240911537587,128.1,17.652022569506315,8.6611815642634,0
sbt_34379,22.541647094570926,128.1,17.59691420341212,8.536843877455174,0
rbt_635862,10.786292146884538,61.95,17.41128675848997,5.973511007652476,0
rbt_3435739,13.324982365268399,76.65,17.384190952731114,8.2005261060638,0
rbt_637397,10.741347885358017,61.95,17.33873750663118,8.149337702529014,0
rbt_605816,10.229787978209913,61.95,16.51297494464877,6.21320019338021,0
sbt_24791,25.453622568531838,163.8,15.539452117540803,5.782027358792721,0
sbt_3174,25.45361368943291,163.8,15.539446696845488,5.782028976646633,0
rbt_609688,11.214209064933144,76.65,14.630409738986488,5.327244205499925,0
smt_19119,23.648212062582534,163.8,14.437247901454537,8.792986742884827,0
smt_17184,23.64706803914442,163.8,14.43654947444714,8.792520426530574,0
rbt_1638954,7.865133736255937,61.95,12.695938234472859,5.967717311171412,0
rbt_1607265,11.051373824765832,90.3,12.238509219009782,5.759599694432496,0
rbt_606139,9.338751065695892,76.65,12.183628265748064,4.361512966820093,0
rbt_623004,7.276049663999563,61.95,11.745035777239005,4.575454434684093,0
sbt_11363,18.112919384538348,163.8,11.057948342209002,4.121918511422965,0
sbt_9361,23.688720005227456,216.3,10.951789184108856,5.157975206163134,0
rbt_606121,6.383067913243734,61.95,10.30358016665655,4.841206385195838,0
rbt_1605991,6.104800322057753,61.95,9.854399228503233,4.632949588276309,0
rbt_1607280,6.055939475795779,61.95,9.775527805965744,4.594121467142451,0
sbt_34393,12.185116171710852,128.1,9.512190610234859,6.253613937393481,0
rbt_635543,5.819543324292437,61.95,9.393935955274312,3.731051428750075,0
rbt_606114,8.280127200241932,90.3,9.16957608000214,4.310093664365939,0
rbt_627337,8.060308448034075,90.3,8.926144460724336,4.197401056508688,0
rbt_1621994,7.906533376816582,90.3,8.755850915632982,4.114703363700513,0
rbt_626678,7.72583979255232,90.3,8.555747278573998,4.023620582132481,0
rbt_606150,5.257380344289734,61.95,8.486489659870434,3.9868327408939064,0
rbt_1607272,7.568304627579695,90.3,8.381289731538978,3.943546709852912,0
rbt_623007,5.170828823475464,61.95,8.346777761865155,3.921750655286282,0
sbt_22748,17.902484419085393,216.3,8.276691825744518,3.894441773761263,0
sbt_7427,17.902476208907615,216.3,8.276688030008144,3.894437852526105,0
sbt_34383,10.59050873745375,128.1,8.267376063586065,4.870065307995923,0
sbt_34392,10.590505597265347,128.1,8.267373612228997,5.18303373528182,0
sbt_34384,10.57683729295661,128.1,8.256703585446221,3.988290621785021,0
smt_34713,23.634393616053824,286.65,8.24503527509291,5.02136539141055,0
smt_34700,23.63424500618685,286.65,8.244983431427473,5.021331232357983,0
smt_34701,23.63389297893974,286.65,8.244860624085032,5.021250336512263,0
smt_34715,23.633591946233267,286.65,8.244755606570127,5.0211811817292125,0
smt_34702,23.633293785513406,286.65,8.244651590969267,5.02111270717388,0
smt_34703,23.63288537294113,286.65,8.24450911318372,5.021018945612436,0
smt_34704,23.632394397712076,286.65,8.244337832796818,5.0209062802739854,0
smt_34716,23.632087537718935,286.65,8.244230782389304,5.020835892373529,0
smt_34705,23.631779014428076,286.65,8.244123151727917,5.020765144690508,0
smt_34717,23.63141138348072,286.65,8.243994900917748,5.020680871498752,0
smt_34706,23.63103916137437,286.65,8.243865048447367,5.020595577371372,0
smt_34707,23.63060090200863,286.65,8.243712158384312,5.020495191629451,0
smt_34708,23.63019257549524,286.65,8.24356971062105,5.020401701765349,0
smt_34709,23.62966563420744,286.65,8.243385883205107,5.020281110501823,0
smt_34718,23.62937209149571,286.65,8.243283478630984,5.020213960392922,0
smt_34710,23.629085030294846,286.65,8.24318333518048,5.020148312133822,0
smt_34719,23.628784796700995,286.65,8.243078596442,5.020079671611899,0
smt_34711,23.62848553345443,286.65,8.242974196216442,5.020011273536803,0
smt_34720,23.62814432085916,286.65,8.242855161646315,5.019933312761201,0
smt_34712,23.627829537407226,286.65,8.24274534708084,5.019861414213388,0
smt_34721,23.627603664846063,286.65,8.242666549745707,5.0198098377311196,0
smt_34714,23.627594377192047,286.65,8.24266330967802,5.019807717079734,0
rbt_1630759,6.258854634688093,76.65,8.165498544929017,3.840884344623247,0
rbt_606122,5.054281337065537,61.95,8.15864622609449,3.83478582924948,0
rbt_1229546,7.33683264321151,90.3,8.124953093257487,3.8209972696568717,0
rbt_1638606,5.004860478274107,61.95,8.078870828529631,3.7986307455790986,0
rbt_605905,7.160405636231307,90.3,7.929574347985943,3.727593760929651,0
rbt_1607283,7.089199462703324,90.3,7.8507192277999165,3.693185355095139,0
smt_29422,23.649099035738242,305.0,7.753802962537129,4.722004095950122,0
smt_31417,25.250782132663705,327.6,7.707808953804548,4.7172621349493395,0
smt_31416,25.25073568163321,327.6,7.707794774613311,4.71725278977646,0
smt_31411,25.250717979552014,327.6,7.707789371047623,4.7172492287663,0
smt_31412,25.250697948801744,327.6,7.707783256654989,4.7172451988570465,0
smt_31413,25.250579171033745,327.6,7.70774699970505,4.717221305381484,0
smt_31414,25.250489911864875,327.6,7.707719753316505,4.717203351535731,0
smt_31415,25.25026373845483,327.6,7.70765071381405,4.717157864751563,0
smt_4387,25.249891799356057,327.6,7.707537179290615,4.717083082439312,0
smt_4863,25.249462648343552,327.6,7.70740618081305,4.716996828065649,0
smt_4693,25.24910261843677,327.6,7.707296281574106,4.7169244918747415,0
smt_4591,25.248773599260947,327.6,7.707195848370252,4.716858406741665,0
smt_17964,25.24875329481226,327.6,7.707189650431093,4.70850929951739,0
smt_4627,25.248424435309484,327.6,7.707089265967486,4.716788296778653,0
smt_6826,25.248305600881167,327.6,7.707052991721968,4.708418499827924,0
smt_4527,25.248145155127325,327.6,7.70700401560663,4.7167322348810155,0
smt_7012,25.247788820603585,327.6,7.706895244384489,4.7083137333787315,0
smt_23134,25.247691145559596,327.6,7.706865429047495,4.716641128359634,0
smt_22791,25.24732573883416,327.6,7.706753888533015,4.708219894240618,0
smt_18545,25.247284082881084,327.6,7.706741173040624,4.7165594743308406,0
smt_10381,25.246852819053796,327.6,7.706609529625701,4.71647299834222,0
smt_7020,25.246785165563715,327.6,7.706588878377202,4.708110401274513,0
smt_18806,25.24663495586453,327.6,7.706543026820674,4.716429325705498,0
smt_24122,25.246564047696236,327.6,7.706521382080657,4.716415114655518,0
smt_6842,25.246369219366493,327.6,7.706461910673531,4.708026187461292,0
smt_6830,25.245738218640316,327.6,7.7062692975092535,4.70789849277804,0
smt_29390,25.24504182352036,327.6,7.706056722686312,4.707670821293646,0
smt_31407,25.24497930374785,327.6,7.70603763850667,4.707745007693098,0
smt_31408,25.244514537760796,327.6,7.705895768547251,4.715791228752756,0
smt_17776,25.244431274069232,327.6,7.705870352279985,4.70754612381267,0
smt_10747,25.24380998543077,327.6,7.705680703733446,4.707419302179912,0
smt_18202,25.243270462790665,327.6,7.705516014282865,4.70730922777524,0
smt_17794,25.242769814733386,327.6,7.705363191310556,4.707207131713614,0
smt_29420,25.24246047174718,327.6,7.70526876426959,4.707144070743254,0
smt_22739,25.242279691974282,327.6,7.70521358118873,4.707107225952133,0
smt_17795,25.241683620150518,327.6,7.7050316300825745,4.706985782229184,0
smt_29389,25.241018640711815,327.6,7.704828644905925,4.706850375039764,0
smt_19163,25.2404456493785,327.6,7.704653739126526,4.706733763137132,0
smt_17961,25.240080459730283,327.6,7.7045422648749335,4.706659472794725,0
smt_29388,25.23965928146015,327.6,7.70441370007941,4.7065738226459315,0
smt_17962,25.23914163729502,327.6,7.704255689039993,4.706468599237119,0
rbt_1107340,6.787694479627511,90.3,7.516826666254166,3.5372395340897467,0
rbt_605822,6.787041668457278,90.3,7.516103730295989,3.53705235820671,0
rbt_1626486,6.78516729792746,90.3,7.514028015423543,3.5309780215966544,0
rbt_1607287,6.780549475232444,90.3,7.508914147544235,3.5319470649642333,0
rbt_606132,4.534476058791043,61.95,7.319573944779729,3.4391020447188647,0
rbt_623433,6.566496250261653,90.3,7.271867386779239,3.4214110363151846,0
smt_6447,23.705982606592556,327.6,7.236258426920804,4.409109169232632,0
smt_6627,23.70560331192352,327.6,7.236142647107302,4.409034341861932,0
smt_24630,23.704998624807942,327.6,7.2359580661806895,4.4089151083652585,0
smt_24629,23.7046255169814,327.6,7.235844174902748,4.408841574516516,0
smt_24628,23.704128078548944,327.6,7.235692331669396,4.408743580231052,0
smt_24627,23.70375876592497,327.6,7.235579598878196,4.408670858401924,0
smt_6957,23.703413287039353,327.6,7.2354741413429045,4.408602854330522,0
smt_6431,23.702983336033608,327.6,7.235342898667158,4.408518256027269,0
smt_24626,23.702625533683957,327.6,7.235233679390706,4.408447881995541,0
smt_12228,23.70223650724345,327.6,7.235114928950992,4.4083713956968635,0
rbt_626698,6.521746685032538,90.3,7.222310836137916,3.394481899239306,0
smt_6510,23.656201326574774,327.6,7.221062675999625,4.397656963450194,0
smt_19223,23.655676514194255,327.6,7.220902476860272,4.397552595665489,0
smt_22843,23.65522980917937,327.6,7.220766120018123,4.397463804308269,0
smt_6737,23.65484018535985,327.6,7.220647187228281,4.397386391620991,0
smt_24665,23.65433246875129,327.6,7.220492206578537,4.397285561236073,0
smt_24635,23.65380795469955,327.6,7.2203320985041355,4.397181449192007,0
smt_24637,23.653265226657105,327.6,7.220166430603511,4.397073779889491,0
smt_24636,23.65273449033642,327.6,7.220004423179615,4.396968546643474,0
smt_19174,23.652251273340458,327.6,7.219856921044094,4.396872784536278,0
smt_6686,23.651681228185662,327.6,7.2196829145865875,4.396759875313816,0
smt_19173,23.650722645863375,327.6,7.219390307040102,4.396570155146226,0
smt_19172,23.65039873329881,327.6,7.219291432630894,4.3965060888559195,0
smt_6544,23.650045289224927,327.6,7.219183543719453,4.396436205537858,0
smt_6535,23.649522873106708,327.6,7.219024076039898,4.396332958777083,0
smt_24634,23.64838086878421,327.6,7.218675478871858,4.396107451564316,0
smt_24633,23.647973353132546,327.6,7.218551084594793,4.396027044495455,0
smt_24511,23.647699336947912,327.6,7.21846744107079,4.396388842448201,0
smt_24632,23.647534981345654,327.6,7.218417271473032,4.395940586358274,0
smt_1873,23.64710353230729,327.6,7.2182855715223715,4.3958555312227965,0
smt_29446,23.64705425210689,327.6,7.218270528726157,4.396257404761573,0
smt_24631,23.646716934598707,327.6,7.218167562453817,4.395779349678425,0
smt_32671,23.64662881216736,327.6,7.218140663054749,4.396170766074642,0
smt_6527,23.646315295353897,327.6,7.218044961951739,4.395700235875809,0
smt_6389,23.6461591955001,327.6,7.217997312423717,4.396075173253544,0
smt_24510,23.646144773167855,327.6,7.217992910002397,4.396072238123834,0
smt_24509,23.645645485232215,327.6,7.217840502207635,4.395970655808167,0
smt_24508,23.645207830863427,327.6,7.217706908077968,4.395881654384604,0
smt_6426,23.644813295742637,327.6,7.217586476111916,4.395801454701211,0
smt_6420,23.64441105338804,327.6,7.217463691510391,4.3957197205594865,0
smt_6140,23.643976394823376,327.6,7.217331011850847,4.395631436167727,0
smt_6653,23.6435618062458,327.6,7.217204458560989,4.395547263660742,0
smt_6650,23.643153301461187,327.6,7.21707976235079,4.395464360159344,0
smt_29445,23.64275258667637,327.6,7.216957444040404,4.39538307021746,0
smt_24507,23.642340362123473,327.6,7.216831612369802,4.395299479081621,0
smt_24506,23.64192954290574,327.6,7.216706209678186,4.395216206967009,0
smt_24505,23.641505604622694,327.6,7.21657680238788,4.395130311247047,0
smt_24459,23.64114185334045,327.6,7.216465767197939,4.3950566390559365,0
smt_24458,23.640703715463065,327.6,7.216332025477127,4.3949679363750205,0
smt_24457,23.640262838815502,327.6,7.21619744774588,4.394878718249022,0
smt_24456,23.639857438890907,327.6,7.216073699295149,4.394796713875013,0
smt_24455,23.639441258759714,327.6,7.215946660183062,4.3947125632991435,0
smt_24454,23.639041985151895,327.6,7.2158247817923975,4.39463186395051,0
smt_19165,23.638601123203426,327.6,7.215690208548054,4.394542796229287,0
smt_17113,23.638140168062215,327.6,7.215549501850492,4.394449710884512,0
smt_6993,23.63712886934306,327.6,7.215240802607771,4.394245638960621,0
smt_24453,23.636515242187066,327.6,7.215053492731094,4.394121914256465,0
smt_24452,23.636040299210904,327.6,7.2149085162426445,4.394026204208216,0
smt_24451,23.635624045065903,327.6,7.21478145453782,4.393942358386142,0
smt_24450,23.635230843807022,327.6,7.214661429733522,4.393863188079483,0
smt_6394,23.634800678888627,327.6,7.214530121760874,4.393776610834932,0
smt_24668,23.62758364653472,327.6,7.212327120431844,4.392329608635426,0
smt_29393,23.62741522689553,327.6,7.212275710285571,4.392295965510372,0
smt_19218,23.62599973132692,327.6,7.211843629831172,4.392013434359034,0
smt_6502,23.625507165258302,327.6,7.21169327388837,4.391915213119494,0
smt_24667,23.625249756455748,327.6,7.2116146997728166,4.391863903336589,0
smt_6683,23.624557660677638,327.6,7.211403437325285,4.391726012524342,0
smt_19220,23.623996085921007,327.6,7.211232016459404,4.391614196969949,0
smt_22844,23.623605531917335,327.6,7.211112799730565,4.3915364707946685,0
smt_6687,23.623176383381104,327.6,7.210981802008884,4.391451099030455,0
smt_24666,23.62285465068819,327.6,7.210883593006162,4.3913871201033325,0
rbt_1607252,5.495112707593108,76.65,7.169096813559175,3.371413045249031,0
rbt_637356,4.294957490379961,61.95,6.932941873091139,3.25894807134213,0
rbt_631391,6.181817814093313,90.3,6.8458669037578215,5.1846646839493555,0
rbt_605855,5.097097140027901,76.65,6.649833189860274,3.127877636558481,0
rbt_1607255,5.953446765811942,90.3,6.5929643032247425,3.0991889259917724,0
rbt_636933,4.956400817722738,76.65,6.466276344060976,3.0425765704305197,0
rbt_605910,3.893487391676664,61.95,6.284886830793646,2.952357614069337,0
rbt_627343,5.63734081094545,90.3,6.242902337702603,2.9335131627576234,0
sbt_28279,13.228840379654551,216.3,6.115968737704369,2.880003627415473,0
sbt_20214,13.228832938685956,216.3,6.1159652975894385,2.8800039153485835,0
rbt_1607304,3.7875279657166425,61.95,6.113846595184249,2.871337972986328,0
rbt_1607305,5.350785846919576,90.3,5.9255657219485895,2.785838877765689,0
rbt_1607285,3.634894600425886,61.95,5.86746505314913,2.7550100241258577,0
rbt_606103,4.416519033828936,76.65,5.761929594036446,2.708474329637401,0
rbt_3405846,4.40207400978449,76.65,5.743084161493138,2.700619749064312,0
rbt_606109,3.50626832879074,61.95,5.659835881825246,2.658970190139039,0
rbt_605825,5.109161824819861,90.3,5.657986516965516,2.6605165464655527,0
sbt_4580,9.189968907523676,163.8,5.610481628524832,2.6399077570073786,0
rbt_1631852,5.057609312280967,90.3,5.6008962483731635,2.6326100372000694,0
rbt_605993,5.028319859152364,90.3,5.568460530622773,2.6169592989456247,0
rbt_621999,4.99160012967905,90.3,5.527796378382115,2.598321742636387,0
rbt_630753,4.988372619271697,90.3,5.524222169736099,2.5978681407917965,0
sbt_6049,9.014324735769236,163.8,5.503250754437873,2.5896844114486677,0
rbt_607384,3.3023274039488277,61.95,5.330633420417801,2.5045864149051518,0
rbt_1607278,4.079230352839102,76.65,5.321892175915331,2.5006513046615844,0
smt_6110,17.414863314824895,327.6,5.315892342742642,3.0479756322718288,0
rbt_1628760,4.790653227023117,90.3,5.3052638173013476,2.49273566282332,0
rbt_3433894,4.763378671193296,90.3,5.275059436537426,2.4800523729125006,0
rbt_1607357,4.018483824892429,76.65,5.242640345586991,2.4640224921810177,0
smt_24515,16.88429828919199,327.6,5.153937206713061,3.0135780252482554,0
smt_6552,16.883910603356913,327.6,5.153818865493562,3.013487756739232,0
smt_6549,16.88339836554561,327.6,5.153662504745301,3.0133685467111895,0
smt_23959,16.88295107931973,327.6,5.153525970488318,3.013264507537569,0
smt_22744,16.882414491613645,327.6,5.153362176927242,3.013139764590067,0
smt_19175,16.88196821788548,327.6,5.153225951735494,3.013036073645571,0
smt_19177,16.881460072770064,327.6,5.1530708402839025,3.012918069321323,0
smt_19176,16.880926029148423,327.6,5.152907823305379,3.0127941222792494,0
smt_19164,16.880693503449358,327.6,5.152836844764761,3.0127401779312124,0
smt_32311,16.880293396573233,327.6,5.152714712018691,3.0126473884776352,0
smt_39119,16.87981349009645,327.6,5.152568220420161,3.012536146291722,0
smt_32312,16.879790956054403,327.6,5.1525613418969485,3.012530925060466,0
smt_32310,16.87977258422977,327.6,5.15255573389187,3.012526667405023,0
smt_32309,16.879328507709833,327.6,5.1524201793986055,3.0124237888297904,0
smt_32314,16.879125480584193,327.6,5.15235820530653,3.0123767708363527,0
smt_32313,16.87911006428465,327.6,5.152353499476389,3.0123732008463566,0
smt_6802,16.878933281301794,327.6,5.152299536416908,3.0668630124152707,0
smt_24514,16.878378752066613,327.6,5.152130266198599,3.066735372746129,0
smt_24513,16.877802864535727,327.6,5.151954476354007,3.0666028976302147,0
smt_19166,16.877350982272144,327.6,5.151816539155111,3.066499005864656,0
smt_6414,16.87690988434287,327.6,5.151681893877554,3.0663976423810655,0
smt_18852,16.876463461485024,327.6,5.151545623163926,3.0662951044838156,0
smt_6403,16.87596812691091,327.6,5.1513944221339765,3.066181390124857,0
smt_1832,16.875537525635945,327.6,5.151262980963353,3.0660825861657828,0
smt_1831,16.875118022176444,327.6,5.151134927404287,3.0659863730101193,0
smt_1829,16.87429442734023,327.6,5.15088352482913,3.065797608888266,0
smt_1828,16.87369825258016,327.6,5.150701542301635,3.065661073783799,0
smt_6350,16.78698940480067,327.6,5.124233640049044,2.9976529568880075,0
smt_24517,16.784809413352953,327.6,5.123568196994185,2.9973709388913914,0
smt_24520,16.784141320631882,327.6,5.123364261487143,2.9972152760218784,0
smt_19116,16.78382585588441,327.6,5.123267965776681,2.997141814020799,0
rbt_605806,4.389567833220728,90.3,4.8610939459808735,2.2844470589320927,0
rbt_622714,4.323116578367122,90.3,4.787504516464144,2.251220138112694,0
sbt_25907,10.229812406239283,216.3,4.7294555738508,1.7795084659519802,0
sbt_21361,10.229805690975596,216.3,4.7294524692443805,1.7795085670888238,0
sbt_20771,10.229800328594074,216.3,4.729449990103594,1.7795107183017826,0
rbt_1607258,3.613982443816769,76.65,4.7149151256578845,2.2172819349370028,0
smt_6066,7.703249225252198,163.8,4.702838354854821,2.6993824121920755,0
smt_6062,7.702842172863449,163.8,4.702589849122985,2.699308016435097,0
smt_6719,7.7023926027331235,163.8,4.702315386283957,2.6992267396190015,0
smt_6176,7.701885657560145,163.8,4.702005895946364,2.6991314206644788,0
smt_6144,7.7014120761444085,163.8,4.701716774202936,2.6990454413689005,0
smt_6227,7.70090990286902,163.8,4.701410197111733,2.6989527252974796,0
smt_19063,7.700424599318399,163.8,4.701113918997802,2.698864152106838,0
smt_6092,7.6999434848525325,163.8,4.70082019832267,2.6987741074717024,0
smt_29474,7.699526591004451,163.8,4.700565684373902,2.69870124987256,0
smt_29473,7.699059814161643,163.8,4.700280716826399,2.698617594434411,0
smt_19115,7.6985927486323025,163.8,4.699995573035594,2.6985296591629466,0
smt_24512,7.69822442550691,163.8,4.69977071154268,2.6984476401760435,0
rbt_627328,4.219968149701142,90.3,4.6732759132903015,2.199512681348123,0
smt_37840,7.599086345433269,163.8,4.639246853133864,2.673009829386683,0
smt_6474,7.5987539671221835,163.8,4.639043935972029,2.6729488983164504,0
smt_19061,7.59834216649098,163.8,4.638792531435274,2.672869514003146,0
smt_29476,7.597939782450065,163.8,4.63854687573264,2.6727962349334304,0
smt_6594,7.597448359666086,163.8,4.638246861823007,2.6727030342568554,0
smt_29475,7.596952765269921,163.8,4.637944301141587,2.6726065570779625,0
smt_19011,7.596525497259133,163.8,4.637683453760155,2.6725288168304773,0
smt_19014,7.596035630325012,163.8,4.637384389697809,2.6724369811658764,0
sbt_5830,7.581756020068758,163.8,4.6286666789186555,2.1778683811156028,0
rbt_621168,3.5114962954003253,76.65,4.58120847410349,2.1533151947946374,0
rbt_605815,4.120651836000345,90.3,4.563291069767824,2.1459872909495643,0
rbt_1107330,4.120157563870258,90.3,4.562743703067838,2.1473702873120044,0
rbt_621171,2.819162824041537,61.95,4.550706737758736,2.137977519725134,0
rbt_3422597,4.102166214103613,90.3,4.542819727689493,2.1365564877680363,0
rbt_606127,2.798316253451216,61.95,4.51705609919486,2.122204204879185,0
rbt_635966,2.7827968280782573,61.95,4.492004565098075,2.1106670637792857,0
rbt_1124041,4.047588221400973,90.3,4.48237898272533,2.108137598354603,0
rbt_605921,3.335274959774896,76.65,4.351304578962682,2.0454116270886415,0
sbt_14007,7.089199178108502,163.8,4.327960426195666,2.0359866171073517,0
rbt_627336,3.871366242595607,90.3,4.287227289696132,2.014445381959066,0
rbt_1627321,3.8566743500072054,90.3,4.2709571982361085,2.0076107438175,0
rbt_1607355,3.8407054535090923,90.3,4.253272927474078,1.9991708011642524,0
rbt_605902,2.634373783422957,61.95,4.252419343701303,1.9982955898096098,0
sbt_35173,5.350785449136681,128.1,4.17703782134011,1.9637877404998358,0
rbt_1607358,3.1980339730446588,76.65,4.172255672595771,1.9612960989314148,0
sbt_21952,9.014323875697153,216.3,4.167509882430491,1.9611197474508397,0
sbt_20840,6.787041645284836,163.8,4.14349306793946,1.9499134228860406,0
sbt_6273,6.780549170066185,163.8,4.1395294078548135,1.9470988292452756,0
rbt_3405838,3.684068228267032,90.3,4.079809776596935,1.9198513178285914,0
rbt_622273,2.344757810979967,57.75,4.0601866856795965,1.9112024477979104,0
rbt_1107341,2.51188124256162,61.95,4.054691271285908,1.9074832935520813,0
smt_6536,11.58050269447657,286.65,4.039945122789663,2.3887884817645566,0
smt_6703,11.579920118463482,286.65,4.039741886783005,2.388655483334612,0
smt_6514,11.57934878653957,286.65,4.039542573361093,2.3885252200400435,0
smt_6984,11.579261572201768,286.65,4.039512147985965,2.388505349850006,0
smt_5854,11.578374155800098,286.65,4.039202566125972,2.3883033897815498,0
smt_5855,11.577709209565805,286.65,4.038970594650552,2.3881523241020597,0
smt_5657,11.577164158312081,286.65,4.038780449437321,2.3880286658257286,0
rbt_638617,2.5019284948414895,61.95,4.03862549611217,1.8998378898161725,0
smt_21743,11.576589488254893,286.65,4.038579971482608,2.3878984529850835,0
smt_22741,11.576000608304119,286.65,4.03837453630006,2.3877651964152697,0
smt_6098,11.575532724474247,286.65,4.038211311520756,2.3876594471192454,0
smt_19120,11.574990102118862,286.65,4.038022013646909,2.3875369469576557,0
smt_22740,11.574452994393605,286.65,4.037834639593094,2.387415841348123,0
smt_22738,11.560015770201097,286.65,4.032798105773975,2.3818789851903857,0
smt_6754,11.55952646471004,286.65,4.032627407887682,2.381767431861459,0
smt_6567,11.559029025181118,286.65,4.032453872381343,2.3816541494439325,0
smt_6746,11.558534495151463,286.65,4.0322813518756195,2.3815416550446113,0
smt_6812,11.558048463096522,286.65,4.032111795952041,2.381431215681147,0
rbt_605828,3.639681523773246,90.3,4.030655065086651,1.8968643240569152,0
rbt_1607292,3.5700641613942756,90.3,3.953559425685798,1.85890733959679,0
sbt_4118,11.21421657967201,286.65,3.9121634675290466,1.4245016768963412,0
rbt_1635060,2.422673759658836,61.95,3.910692105986821,1.8389473656283328,0
rbt_1626490,3.5313211616637337,90.3,3.9106546640794395,2.9619046114501955,0
sbt_37156,6.383067699956822,163.8,3.8968667276903672,1.830968950110022,0
rbt_605867,3.5113975327480156,90.3,3.888590844682188,1.8285461785724388,0
sbt_4615,6.2972994125954225,163.8,3.8445051358946407,1.809944549608778,0
sbt_3373,6.297298212211838,163.8,3.84450440305973,1.8099437542263273,0
sbt_20793,6.297297110107096,163.8,3.8445037302241123,1.80994303013373,0
sbt_4010,6.297295401114334,163.8,3.8445026868829877,1.8099419184063004,0
sbt_28804,6.297293848698206,163.8,3.844501739131993,1.809940919614488,0
rbt_605812,3.4291268399468064,90.3,3.7974826577484015,1.7872349991851297,0
rbt_632613,3.425969595060335,90.3,3.793986262525288,1.7845402159425368,0
rbt_622713,3.408595559148347,90.3,3.7747459126781258,1.773783887056848,0
rbt_606120,2.3274347604556893,61.95,3.756956836893768,1.764722008551014,0
sbt_26269,8.060308081898391,216.3,3.726448489088484,1.7523128881651762,0
rbt_1132019,3.318992564009719,90.3,3.6755177896010185,1.7282097618530508,0
rbt_605863,3.3029051558113776,90.3,3.657702276646044,1.7203136165390533,0
rbt_634166,2.775616802587354,76.65,3.62115695053797,1.7016506813523353,0
rbt_1138614,2.228444196891103,61.95,3.5971657738355174,1.6913696333227681,0
smt_7052,5.8583210226614835,163.8,3.5765085608433966,1.93657481674087,0
rbt_605803,3.2076949074423626,90.3,3.5522645708110328,1.6698841306580796,0
rbt_605834,3.18480889496528,90.3,3.526920149463211,1.660438231104884,0
smt_29484,5.7614721764034025,163.8,3.517382281076558,1.7426477246403376,0
smt_22951,5.761458704665524,163.8,3.5173740565723586,1.742639444300688,0
rbt_605904,2.178775565551482,61.95,3.516990420583506,1.6513782459410304,0
smt_19381,5.7601238748443295,163.8,3.5165591421516056,1.7418202151706659,0
smt_18804,5.759428948093923,163.8,3.516134888946229,1.7413946308101378,0
smt_19380,5.7586325765356525,163.8,3.5156487036237194,1.7409076945496906,0
smt_5349,5.757994518308477,163.8,3.5152591686864936,1.7405181572018826,0
smt_18803,5.757346446628917,163.8,3.5148635205304744,1.7401230544590371,0
smt_13454,5.756684704543774,163.8,3.514459526583501,1.7397201890990879,0
smt_19377,5.755898083533127,163.8,3.513979293976268,1.739242052567829,0
smt_37837,7.599645241492116,216.3,3.513474452839628,2.0243034348814084,0
smt_29411,5.754909144484904,163.8,3.5133755460835796,1.7386421078294123,0
smt_37841,7.599297640070125,216.3,3.513313749454519,2.024248418150245,0
smt_8954,5.754301533606649,163.8,3.5130045992714583,1.7382741458540778,0
smt_5584,5.7535932394928135,163.8,3.5125721852825476,1.7378458365821086,0
rbt_605810,2.6874703747343704,76.65,3.5061583492946773,1.6479101676085188,0
rbt_605864,3.157963017817272,90.3,3.4971904959216746,1.6448384185845795,0
rbt_609682,2.6622248688561547,76.65,3.4732222685664116,1.6339720309243801,0
rbt_622703,2.136215494786813,61.95,3.4482897413830713,2.61215998771126,0
rbt_605835,3.1124913596660337,90.3,3.4468342853444454,1.622717954562759,0
sbt_14006,5.634918221878528,163.8,3.440121014577856,1.6177456573556288,0
sbt_27416,7.336832515478773,216.3,3.3919706497821416,1.5951735565861398,0
sbt_15213,7.336832464768811,216.3,3.391970626337869,1.5951735456355074,0
rbt_606128,2.585897792930584,76.65,3.3736435654671673,1.5854613436441392,0
sbt_37537,7.276080796157123,216.3,3.3638838632256687,1.3104468598780057,0
sbt_37545,7.276072150366974,216.3,3.3638798660966125,1.3104474498940324,0
sbt_37546,7.276055429994708,216.3,3.3638721359198835,1.3104463637882948,0
sbt_37539,7.268274851651727,216.3,3.3602750123216487,1.828664914469581,0
sbt_37538,7.268269322319752,216.3,3.3602724559961867,1.8286654383129657,0
rbt_1607257,3.0189353361565052,90.3,3.343228500727027,1.5715350147992533,0
rbt_607385,3.012990325035678,90.3,3.336644878223342,1.5693732281373214,0
rbt_3405845,3.003276842914253,90.3,3.3258879766492284,1.5656093457994584,0
rbt_633056,2.9993155848833744,90.3,3.321501201421234,1.561649370789481,0
rbt_606141,2.9960235024802864,90.3,3.317855484474293,1.561887552626975,0
rbt_623015,2.9880467362912406,90.3,3.309021856357963,2.506369035978445,0
sbt_34389,4.219966896986657,128.1,3.2942754855477414,2.5349259363981704,0
smt_25186,5.3835809437509825,163.8,3.2866794528394276,1.7953164627068086,0
smt_37855,7.048755937691116,216.3,3.2587868412811445,1.7503980444749827,0
smt_37854,7.048395134830606,216.3,3.2586200345957494,1.7503837601642058,0
smt_37853,7.048063121835999,216.3,3.2584665380656492,1.7503747512443655,0
smt_37852,7.047722339622734,216.3,3.2583089873429185,1.7503625678946264,0
smt_37851,7.047401369578919,216.3,3.258160596199223,1.7503548434968819,0
smt_37850,7.04706752165103,216.3,3.2580062513412065,1.7503454137238859,0
smt_37849,7.046735043999351,216.3,3.257852539990453,1.7503377720896605,0
smt_37848,7.046390698216964,216.3,3.2576933417554153,1.7503285940963602,0
smt_37847,7.046047655469556,216.3,3.257534745940617,1.750308221023096,0
smt_37846,7.045806553164129,216.3,3.257423279317674,1.750312297920506,0
smt_37845,7.0454774658250265,216.3,3.2572711353791153,1.7503068597700626,0
smt_38000,7.045126698662568,216.3,3.25710896840618,1.7502924576811159,0
smt_38002,7.044829646175547,216.3,3.256971634847687,1.7502519570324777,0
smt_38001,7.044821941637965,216.3,3.2569680728793173,1.7502523962153482,0
smt_37843,7.044810247642929,216.3,3.256962666501585,1.75028838109343,0
smt_37842,7.044486743438474,216.3,3.2568131037625863,1.75026303276333,0
smt_37838,7.044319556243442,216.3,3.2567358096363574,1.7502713190380927,0
rbt_605982,2.927320120956735,90.3,3.2417720054891865,1.525217636883755,0
rbt_1606000,2.9260381059335425,90.3,3.2403522767813318,1.523450742506873,0
rbt_1629639,2.913212943703234,90.3,3.226149439316981,1.5157498457091012,0
sbt_3952,5.267312967937164,163.8,3.2156977826234208,1.5133428866670382,0
sbt_4120,5.26731155114003,163.8,3.2156969176679056,1.51334196856465,0
sbt_20855,5.267310169837483,163.8,3.2156960743818574,1.5133410804486473,0
sbt_20854,5.267308857823568,163.8,3.215695273396561,1.5133402430123244,0
rbt_635963,1.9909501146739073,61.95,3.2138016378916987,1.509564079020832,0
rbt_626481,2.8635384940224573,90.3,3.171138974554216,1.4905962831118413,0
rbt_1607306,2.414751116383801,76.65,3.1503602301158526,1.4812958066999835,0
rbt_605901,2.835635438450885,90.3,3.140238580787248,1.475549217483617,0
rbt_605820,2.403050822100914,76.65,3.1350956583182175,1.4745650681041162,0
rbt_3405847,2.8295216517867257,90.3,3.133468052919962,1.4749144223597368,0
sbt_34000,6.735971797188668,216.3,3.114180211367854,1.4637889069524415,0
rbt_1607289,2.386986189195152,76.65,3.1141372331313133,1.4634314537134252,0
sbt_20828,5.054280074293604,163.8,3.085641070997316,1.4503348821354736,0
rbt_1609690,2.744713876472191,90.3,3.0395502507997683,1.428196799497386,0
smt_15243,4.955281109971668,163.8,3.0252021428398455,1.7736417040281542,0
smt_26472,4.954845502440621,163.8,3.0249362041762033,1.7735779700729122,0
smt_14780,4.954351891817226,163.8,3.0246348545892707,1.77350234169167,0
smt_14754,4.9538594571326815,163.8,3.024334222913725,1.773427623672143,0
smt_14729,4.953369596879433,163.8,3.024035162930057,1.778164248923746,0
smt_21229,4.952872435881863,163.8,3.023731645837523,1.7780897674055975,0
smt_26474,4.952404056489997,163.8,3.023445699932843,1.7780184674246622,0
smt_22453,4.95199103438214,163.8,3.023193549683846,1.7779649117126415,0
smt_14544,4.951495030889712,163.8,3.0228907392489077,1.7778947703542805,0
smt_14113,4.950999772080156,163.8,3.0225883834433183,1.7778289299664216,0
smt_22508,4.950456562139031,163.8,3.022256753442632,1.7777496448427008,0
smt_14452,4.949977783274151,163.8,3.021964458653328,1.7776790805631508,0
smt_6512,8.662276797566845,286.65,3.021900156137047,1.8037812339105281,0
smt_6425,8.661889749992394,286.65,3.02176513169105,1.8037047603382712,0
smt_30311,4.9495761004972,163.8,3.0217192310727716,1.7776316836697343,0
smt_6930,8.661296852041865,286.65,3.0215582947991857,1.8035867350723709,0
smt_26478,4.94908085079177,163.8,3.021416880825256,1.7775595696565125,0
sbt_34382,3.8644476571458135,128.1,3.0167429017531724,1.4176753143768013,0
rbt_1625170,2.722387326843675,90.3,3.0148253896386215,1.4166830780918929,0
smt_37856,6.505271640702415,216.3,3.007522718771343,1.6450557170008393,0
rbt_605821,3.8492612250535383,128.1,3.004887763507836,1.4118495717426705,0
sbt_35105,3.840705090534852,128.1,2.998208501588487,1.4092512558302654,0
rbt_605988,2.6871503710702456,90.3,2.975803290221756,1.4005081134020145,0
smt_22686,8.474348564372356,286.65,2.956339984082455,1.85054071324233,0
smt_6239,8.473893507353306,286.65,2.956181234032202,1.8504472920174504,0
smt_23961,8.473449340384102,286.65,2.956026283057423,1.850356293930061,0
smt_29407,8.472997529772126,286.65,2.9558686655405992,1.8502637698357738,0
smt_6278,8.472592880901027,286.65,2.9557275007504025,1.8501812726843239,0
smt_6630,8.472121100764774,286.65,2.955562916715428,1.850085086394573,0
smt_19070,8.471647089753283,286.65,2.955397554422914,1.8499886120725615,0
smt_6639,8.471173375606483,286.65,2.9552322956938717,1.8498922867688998,0
smt_19117,8.470731203983169,286.65,2.9550780408104553,1.8498025257307342,0
smt_21514,8.466197511056803,286.65,2.9534964280679588,1.8443770494589875,0
smt_5615,8.465739441215778,286.65,2.9533366269721886,1.844281152568876,0
smt_18742,8.465382713432996,286.65,2.9532121798126627,1.844206734345893,0
smt_6270,8.46482247265701,286.65,2.9530167356207957,1.844089796447004,0
smt_5967,8.464386741873803,286.65,2.9528647276727034,1.8439991345087743,0
smt_5772,8.463872748739076,286.65,2.952685417316964,1.8438922999762317,0
smt_6158,8.463364415809918,286.65,2.9525080815663416,1.8437867706163937,0
smt_6263,8.462924192286485,286.65,2.952354506292163,1.8436957183235163,0
smt_6384,8.462378261503384,286.65,2.9521640542485206,1.8435828514042283,0
smt_22684,8.461844104641907,286.65,2.951977709625644,1.8434725124896671,0
smt_22685,8.461408287725,286.65,2.9518256716291646,1.843382783945639,0
smt_29447,8.46095137716535,286.65,2.951666274957387,1.8432888899130402,0
smt_19065,8.460461909712937,286.65,2.9514955205696625,1.8431885492796278,0
smt_24385,8.459908862476647,286.65,2.9513025858980106,1.8430752637534698,0
smt_29448,8.458227959229093,286.65,2.9507161902072543,1.8306990767705662,0
smt_6824,8.457781382629818,286.65,2.9505603986149724,1.8306031601578974,0
smt_6855,8.457302544742006,286.65,2.9503933524304924,1.8305004786613273,0
smt_19062,8.456743365209896,286.65,2.950198278461502,1.8303807844070858,0
smt_7054,8.456298912675122,286.65,2.950043227865035,1.830285813811783,0
smt_6446,8.455844810059126,286.65,2.9498848107654374,1.8301889334013188,0
smt_39006,8.455379563418026,286.65,2.949722505989195,1.8300898352315633,0
smt_39008,8.454959167604295,286.65,2.9495758477600895,1.830000429637524,0
smt_39007,8.454941449610592,286.65,2.949569666705248,1.8299966642522427,0
smt_6122,8.454538009531944,286.65,2.9494289236113533,1.82991099467176,0
smt_18741,8.454028903191292,286.65,2.9492513180503375,1.8298030710595434,0
smt_5938,8.453557238918222,286.65,2.949086774435103,1.8297033083345484,0
smt_5946,8.453012599581402,286.65,2.9488967729221707,1.8295883055056879,0
smt_856,4.829986950706705,163.8,2.9487099821164255,1.7366911864750134,0
smt_15622,4.829442813016423,163.8,2.948377785724312,1.7365958999915205,0
smt_23196,4.8291404418772155,163.8,2.9481931879592276,1.7365541217638063,0
smt_15581,4.828816317870876,163.8,2.9479953100554797,1.736509983084546,0
smt_15568,4.82846550535709,163.8,2.947781138801642,1.7364598488043181,0
rbt_605804,1.8217885000776157,61.95,2.940740113119638,1.382027659216832,0
sbt_6048,4.762506214363047,163.8,2.9075129513815914,1.368273986627904,0
rbt_605829,2.6191982071057143,90.3,2.9005517243695618,1.363607044423939,0
sbt_15045,6.258851949278423,216.3,2.893597757410274,1.3610888029914319,0
smt_23147,4.720702152328509,163.8,2.8819915459881007,1.708845543469187,0
smt_16038,4.720391813922916,163.8,2.881802084202024,1.7088448040614967,0
smt_37925,6.219624221353457,216.3,2.8754619608661383,1.5803871785456411,0
smt_37924,6.219462433369002,216.3,2.8753871629075367,1.5804092584951481,0
smt_37923,6.219116247248257,216.3,2.8752271138457037,1.5804061321704914,0
smt_37864,6.218775049829634,216.3,2.875069371164879,1.5803809244737244,0
smt_37863,6.21861342570499,216.3,2.874994648962085,1.580379920185013,0
smt_37862,6.218451986690161,216.3,2.8749200123394174,1.5803925685914046,0
smt_37861,6.218185360861391,216.3,2.87479674565945,1.5803985358101877,0
smt_37860,6.217862631501352,216.3,2.8746475411471804,1.58039951847285,0
smt_37859,6.217522375220137,216.3,2.874490233573803,1.5803870746468693,0
smt_37858,6.217268893861561,216.3,2.8743730438564774,1.5803991760206417,0
smt_37831,6.216918456988853,216.3,2.8742110295833805,1.5803743258546536,0
rbt_1607316,2.5901595360286436,90.3,2.8683937276064713,2.1735607735427895,0
rbt_1107342,1.7767292851068346,61.95,2.8680053028358907,1.3485105274442193,0
smt_37898,6.2010872597320885,216.3,2.8668919370005033,1.5724178357507235,0
smt_37897,6.200700094036939,216.3,2.866712942226971,1.572395676363208,0
smt_37896,6.20036374544706,216.3,2.8665574412607766,1.5723834206271985,0
smt_37895,6.200003019076012,216.3,2.8663906699380544,1.5723674268175145,0
smt_37894,6.199648113261406,216.3,2.8662265895799384,1.5723506268659004,0
smt_37893,6.199312483346211,216.3,2.866071420872035,1.5723383000511049,0
smt_37892,6.198962189122591,216.3,2.865909472548586,1.572322923936718,0
smt_37891,6.198624369134774,216.3,2.8657532913244443,1.572311757255979,0
smt_37890,6.198265194594434,216.3,2.8655872374454154,1.57231082712815,0
smt_37889,6.197779960609216,216.3,2.865362903656595,1.572267700266937,0
smt_37888,6.197536150676518,216.3,2.8652501852411083,1.5722576062827722,0
smt_37887,6.197302761297147,216.3,2.8651422844647003,1.5722624195762303,0
smt_37886,6.196941638375072,216.3,2.86497532980817,1.5722482206920987,0
smt_37885,6.196593743749959,216.3,2.8648144908691444,1.5722365369625597,0
smt_37884,6.196242349082049,216.3,2.864652033787355,1.572224779519756,0
smt_37883,6.1958898293077285,216.3,2.864489056545413,1.572214290794129,0
smt_37882,6.195526775338716,216.3,2.86432120912562,1.5722013500813183,0
smt_37881,6.195175793854329,216.3,2.8641589430671885,1.5721909517913852,0
smt_37880,6.194819634846087,216.3,2.863994283331524,1.57217781057827,0
smt_37879,6.19448486699515,216.3,2.863839513173902,1.57217167299527,0
smt_37878,6.194115808879682,216.3,2.8636688899120117,1.5721586850190847,0
smt_37877,6.193768707803631,216.3,2.8635084178472634,1.5721504415275185,0
smt_37876,6.193408933526901,216.3,2.8633420866975965,1.5721409381590357,0
smt_37875,6.1930475671493195,216.3,2.863175019486509,1.572131696073435,0
smt_37874,6.192684819704639,216.3,2.863007313779306,1.5721214132056538,0
smt_37873,6.192332547897863,216.3,2.86284445117793,1.5721100044680423,0
smt_37945,6.192005571894103,216.3,2.862693283353723,1.572091614088752,0
smt_37944,6.19177250736634,216.3,2.8625855327629868,1.5720908335322055,0
smt_37943,6.1914996457796425,216.3,2.862459383162109,1.5720903063696363,0
smt_37942,6.191178774141292,216.3,2.862311037513311,1.572083126579655,0
smt_37941,6.19086064908585,216.3,2.8621639616670596,1.572076227413631,0
smt_37940,6.190545511168949,216.3,2.8620182668372394,1.5720707598946202,0
smt_37939,6.190223771725485,216.3,2.861869519984043,1.5720654444343618,0
smt_37938,6.1898952830668055,216.3,2.8617176528279265,1.572059926857104,0
smt_37937,6.189563005446749,216.3,2.8615640339559634,1.5720534849241699,0
smt_37936,6.1892364672323374,216.3,2.8614130685309003,1.5720481079680084,0
smt_37935,6.188909817932764,216.3,2.8612620517488505,1.5720392201414874,0
smt_37934,6.1886143850580755,216.3,2.8611254669709085,1.572038120861112,0
smt_37933,6.18829156803061,216.3,2.86097622192816,1.5720337812981429,0
smt_37932,6.187966966366219,216.3,2.8608261518105493,1.572029476099999,0
smt_13546,4.667098986600192,163.8,2.8492667805861975,1.6912139213514443,0
smt_21225,4.666808164234931,163.8,2.8490892333546585,1.6911804939739847,0
smt_13930,4.666285063290264,163.8,2.848769879908586,1.6910950579642412,0
smt_21226,4.665765888599051,163.8,2.8484529234426437,1.6910036859863722,0
smt_13280,4.665368781397046,163.8,2.8482104892533853,1.6909392369401177,0
smt_14437,4.66499082009793,163.8,2.84797974364953,1.6908798750414709,0
smt_13955,4.664609814707605,163.8,2.8477471396261325,1.6908207525102437,0
smt_26469,4.664223902052968,163.8,2.8475115397148762,1.6907578016667772,0
smt_20808,4.66388670036915,163.8,2.8473056778810437,1.6907072713890778,0
smt_23095,4.663533670744892,163.8,2.8470901530799093,1.690641490904176,0
smt_20807,4.663355667968245,163.8,2.846981482276096,1.6906285038370497,0
smt_13717,4.662980442667676,163.8,2.846752407001023,1.6905669979347906,0
smt_37986,6.1215735904282695,216.3,2.8301311097680393,1.5934056219245658,0
smt_37987,6.121323649373828,216.3,2.830015556807133,1.5933881895063464,0
smt_37993,6.121004351432453,216.3,2.829867938711259,1.593350763514769,0
smt_37920,6.120844724237432,216.3,2.8297941397306663,1.5933512638039724,0
smt_37919,6.120457289444173,216.3,2.8296150205474673,1.5933178937368468,0
smt_37918,6.120077011360773,216.3,2.829439210060459,1.5932848411027625,0
smt_37917,6.1197132692517755,216.3,2.8292710444992024,1.5932552198263892,0
smt_37916,6.119338532885851,216.3,2.829097796063731,1.5932239495017466,0
smt_37915,6.118968930279125,216.3,2.8289269210721795,1.5931875377997018,0
smt_37914,6.1186943908086215,216.3,2.828799995750634,1.5931708059466008,0
smt_37913,6.118334989053088,216.3,2.8286338368252832,1.5931431549354977,0
smt_37912,6.117956823532637,216.3,2.8284590030201744,1.5931122721033486,0
smt_40685,6.117590609036066,216.3,2.8282896944225913,1.5930820362355185,0
smt_37911,6.117243757274763,216.3,2.8281293376212493,1.593033048171926,0
smt_37910,6.117223427642807,216.3,2.8281199388085096,1.5930552103977123,0
smt_37909,6.116851221555711,216.3,2.827947860173699,1.593025995336956,0
smt_37908,6.116486391023119,216.3,2.8277791914115205,1.5929992885593387,0
smt_40683,6.116104946239577,216.3,2.8276028415347096,1.5929686247208217,0
smt_37906,6.115750429124957,216.3,2.8274389408807012,1.5929430306331218,0
smt_37905,6.115383124090671,216.3,2.8272691281047946,1.5929140993135817,0
smt_37904,6.1150412145112325,216.3,2.827111056177176,1.5928891599794266,0
smt_37903,6.114698319073094,216.3,2.826952528466525,1.5928583997602253,0
smt_14797,4.62948719029135,163.8,2.826304755977625,1.6736379904160295,0
smt_23041,4.629104924436019,163.8,2.826071382439572,1.6735750939521579,0
smt_14823,4.628717620332272,163.8,2.8258349330477848,1.6735119378321703,0
smt_13752,4.628324794130809,163.8,2.825595112411971,1.6734237503342884,0
sbt_22669,6.104799817490163,216.3,2.8223762447943423,1.326912499679292,0
rbt_3405987,1.7479681211961633,61.95,2.8215788881294,1.3283207091804012,0
smt_23225,4.616679821477094,163.8,2.8184858494976153,1.6668996530935143,0
smt_21220,4.616245704527113,163.8,2.818220820834623,1.666824184306978,0
smt_14845,4.615792288537038,163.8,2.8179440100958715,1.6667459572739531,0
smt_26425,4.615322993033451,163.8,2.8176575049044263,1.666664748923548,0
smt_20810,4.614856782987415,163.8,2.8173728833867,1.6665807446208742,0
smt_26429,4.614464272705344,163.8,2.817133255619868,1.6665141373278118,0
smt_26430,4.614075062428387,163.8,2.816895642508172,1.6664487343471956,0
rbt_1132012,2.5375927203240005,90.3,2.8101801996943525,1.3207651579645208,0
smt_21222,4.601924994134015,163.8,2.809478018396834,1.660633943472468,0
smt_14301,4.601606541470878,163.8,2.8092836028515737,1.660578273953816,0
smt_23277,4.601204284487741,163.8,2.8090380247177906,1.66050204252394,0
smt_26427,4.600826000856268,163.8,2.8088070823298334,1.660433117683156,0
smt_20812,4.600427408958964,163.8,2.808563741733189,1.6603600464246127,0
smt_15154,4.600028029109463,163.8,2.808319920091247,1.6602861941859877,0
smt_14674,4.599651470437087,163.8,2.8080900307918726,1.660222318775017,0
rbt_1607268,2.1515567830519204,76.65,2.80698862759546,1.3191160376100162,0
smt_37963,6.069156360390848,216.3,2.8058975313873544,1.5704782573757232,0
smt_37983,6.0686809943906805,216.3,2.8056777597737774,1.5704336406629738,0
smt_37984,6.068197914825348,216.3,2.8054544220181916,1.5703878821012032,0
smt_37985,6.067722746916121,216.3,2.8052347419861863,1.5703433340384931,0
smt_37947,6.067255381615661,216.3,2.8050186692629038,1.5702980680327119,0
smt_37948,6.066827929282441,216.3,2.8048210491365886,1.5702598909011771,0
sbt_35588,6.055936083428369,216.3,2.7997855216959633,1.315790478153693,0
rbt_605823,2.526020108025223,90.3,2.7973644607145327,1.3154937108890226,0
sbt_21281,4.534474671345675,163.8,2.76829955515609,1.300685174670837,0
rbt_605989,2.4681487951968966,90.3,2.733276628125024,1.2846115490748364,0
rbt_1121173,2.463753995408484,90.3,2.7284097402087313,1.2833544571468247,0
rbt_605807,2.4573587266750057,90.3,2.721327493549287,1.2803232863835905,0
smt_29426,5.859043417382675,216.3,2.708757936838962,1.4668581407777401,0
rbt_606130,2.070007157355423,76.65,2.700596421859651,1.2689679942116048,0
sbt_3491,4.416515788738693,163.8,2.6962855853105574,1.2674250652670038,0
rbt_637399,1.6605219145255097,61.95,2.680422783737707,1.2595726307278492,0
sbt_21191,4.381123059383096,163.8,2.6746783024316825,1.257547293289742,0
sbt_26310,4.323116170724089,163.8,2.6392650614921176,1.241057000787842,0
rbt_637705,2.3694319863322466,90.3,2.623955688075578,1.9876711888028,0
rbt_1105833,2.3621391321544247,90.3,2.6158794376017993,1.2296409428230208,0
rbt_1607276,2.3526299453316097,90.3,2.6053487766684493,1.2242163406848647,0
smt_37960,5.621570594913347,216.3,2.5989692995438496,1.491867742385187,0
smt_37962,5.62116105924211,216.3,2.598779962663943,1.491829773134314,0
smt_37981,5.602906426485938,216.3,2.590340465319435,1.4677454550483702,0
smt_37951,5.6025231618083335,216.3,2.5901632740676526,1.467706533283633,0
smt_37952,5.602139283536941,216.3,2.5899857991386686,1.4676724557941594,0
smt_37953,5.60166679578948,216.3,2.5897673582013314,1.4676244602918382,0
smt_37954,5.601211693120837,216.3,2.589556954748422,1.4696621103318286,0
smt_37955,5.600717899999422,216.3,2.589328663892474,1.469611659350826,0
smt_37956,5.600320921738135,216.3,2.5891451325650183,1.469580666755338,0
smt_37957,5.599851448132203,216.3,2.588928085128156,1.4695390919025255,0
smt_37958,5.599384714672216,216.3,2.588712304517899,1.4694989992906822,0
smt_37959,5.598909149034412,216.3,2.58849244060768,1.4694575313342713,0
rbt_1607319,2.3157394949912895,90.3,2.564495564774407,1.8216622452360214,0
rbt_622709,2.312982143336166,90.3,2.5614420191984117,1.2042499332257417,0
rbt_1607328,2.3107109849214575,90.3,2.5589268936007286,1.2032655867917075,0
rbt_607366,2.3096024131241637,90.3,2.557699239340159,1.2019591281367419,0
smt_37979,5.482454801574396,216.3,2.534653167625703,1.4559315072107124,0
smt_37980,5.482047684997316,216.3,2.534464949143466,1.4558722749493225,0
sbt_21953,4.1201578589505115,163.8,2.515358888248175,1.183806726656967,0
sbt_21849,4.120157792580359,163.8,2.5153588477291566,1.183806707367572,0
sbt_21968,4.120157712167008,163.8,2.5153587986367567,1.183806684044866,0
smt_6074,7.177193393408212,286.65,2.5038176847752354,1.4816065472775153,0
smt_6082,7.176723817447515,286.65,2.503653869683417,1.4815257106083228,0
smt_6649,7.176261042022724,286.65,2.5034924270094976,1.4814462113908846,0
smt_29408,7.175808575887323,286.65,2.5033345808084158,1.4813688989967553,0
smt_6422,7.175355150749554,286.65,2.5031764000521735,1.481291670865292,0
smt_22683,7.174899399108981,286.65,2.5030174076779983,1.481214202744497,0
smt_22793,7.156232120808538,286.65,2.496505187792967,1.4678664869370313,0
smt_22790,7.155757357332375,286.65,2.4963395629975142,1.4677808244244896,0
smt_29449,7.155318712727899,286.65,2.496186538541043,1.4684479384785956,0
smt_6370,7.155299048513972,286.65,2.496179678532696,1.4676985893858794,0
smt_6401,7.154861197217873,286.65,2.4960269308277945,1.4683678313679025,0
smt_29409,7.1548383581200286,286.65,2.496018963237408,1.467616414226424,0
smt_21348,7.154401090837115,286.65,2.4958664192698814,1.4682948044113007,0
smt_5650,7.1543557117003225,286.65,2.495850588418044,1.467530174043303,0
smt_6094,7.15387922804811,286.65,2.49568436352629,1.467443818102681,0
smt_29477,7.153513348040098,286.65,2.4955567235444267,1.467379979175546,0
smt_29450,7.153066206172031,286.65,2.495400734753892,1.4673014109722213,0
smt_6231,7.1525746095057885,286.65,2.4952292375739713,1.467214133695876,0
smt_6340,7.152113925237678,286.65,2.4950685244157262,1.4671332025153498,0
smt_25183,5.382949221432358,216.3,2.4886496631679877,1.3592684392570795,0
smt_25117,5.382304189459251,216.3,2.4883514514374716,1.3589709876045635,0
smt_25116,5.381641157177475,216.3,2.4880449177889385,1.3586655442155964,0
smt_25115,5.3811224208496915,216.3,2.4878050951686044,1.3584267937029664,0
smt_25114,5.380667168408979,216.3,2.4875946224729444,1.3582174207980737,0
smt_25113,5.380135908400489,216.3,2.487349009893892,1.357973280009957,0
smt_25112,5.379574749863196,216.3,2.48708957460157,1.3577156202655394,0
smt_25111,5.379207119038233,216.3,2.4869196112058405,1.3575469434795047,0
smt_25110,5.378941589745115,216.3,2.486796851477168,1.3574251738545284,0
smt_25109,5.378241270075666,216.3,2.486473079091847,1.357104258414002,0
smt_25108,5.377708103017172,216.3,2.4862265848438145,1.3568601784803205,0
smt_25107,5.376989882314566,216.3,2.485894536437617,1.356531710596929,0
smt_25106,5.376362829064696,216.3,2.485604636645722,1.3562452459002505,0
smt_25105,5.37572140348536,216.3,2.485308092226241,1.3559525143992852,0
smt_29427,5.375079694762855,216.3,2.48501141690377,1.3556599574702493,0
smt_6407,5.373809604494128,216.3,2.484424227690304,1.3550818192709,0
smt_22794,5.373177491018813,216.3,2.4841319884506765,1.354794532262803,0
smt_6477,5.372479903967467,216.3,2.4838094794116814,1.3544778352141364,0
smt_6641,5.371573687003109,216.3,2.4833905164138277,1.354066968128911,0
smt_6157,5.370937414345194,216.3,2.483096354297362,1.3537788601934004,0
smt_6694,5.370218838248748,216.3,2.4827641415851818,1.3534538532887879,0
smt_6581,7.0881739618447455,286.65,2.472762589166142,1.441431885117855,0
smt_6701,7.087710367240855,286.65,2.472600860715456,1.441353188435813,0
smt_21959,7.087201267975498,286.65,2.4724232576227103,1.4412650925796395,0
rbt_1633892,2.2322950071112406,90.3,2.4720874940323814,1.1619062271385063,0
sbt_21137,4.0475856511880215,163.8,2.471053511103798,1.1621768089788775,0
smt_19219,7.0779487526026745,286.65,2.469195448317696,1.4306624816775608,0
smt_5952,7.077458499810124,286.65,2.469024419958181,1.4305706742915898,0
smt_29478,7.076947246874454,286.65,2.468846065541411,1.4304744152072761,0
smt_22841,7.076496778210984,286.65,2.468688916173377,1.4303906820215389,0
smt_6660,7.076010180903958,286.65,2.468519163057372,1.430299903500902,0
rbt_1134165,2.2266307716387788,90.3,2.4658148080163667,1.1603279779233446,0
rbt_1131858,2.2253513445208752,90.3,2.464397945205842,1.15932151669298,0
smt_22845,7.036559347867823,286.65,2.454756444398334,1.407302017679366,0
smt_18913,7.035991098133094,286.65,2.4545582062212086,1.4071946572140348,0
smt_5786,7.035440351550522,286.65,2.4543660741498425,1.4070904107495972,0
smt_29479,7.03496622145827,286.65,2.454200670315113,1.4070015759300967,0
smt_19224,7.034478959408486,286.65,2.4540306852986173,1.406910634134987,0
rbt_1607353,2.2061808701939585,90.3,2.4431681840464656,1.1482728248081169,0
sbt_34390,3.9874359506118484,163.8,2.4343320821806156,1.8440663142226104,0
smt_37973,5.100899249395703,216.3,2.358252080164449,1.3814631856967114,0
smt_37991,5.100722830376759,216.3,2.358170517973536,1.3814493620948938,0
smt_37974,5.100474173497409,216.3,2.35805555871355,1.3814340998048182,0
smt_37990,5.100050277334599,216.3,2.357859582678964,1.381390468972575,0
smt_37975,5.099658265606175,216.3,2.357678347483206,1.381353934685662,0
smt_37976,5.099234077346241,216.3,2.3574822364060286,1.3813125810533586,0
smt_37977,5.098815781477803,216.3,2.3572888495043007,1.3812714186759136,0
smt_37978,5.098417728692728,216.3,2.3571048214020935,1.3812362751789997,0
smt_37970,5.05586217631246,216.3,2.3374305022249007,1.3709654461569132,0
smt_37971,5.055305016094554,216.3,2.3371729154389986,1.3708957024549322,0
smt_37972,5.055017015335199,216.3,2.3370397666829397,1.3708746044879658,0
smt_37989,5.054605958888576,216.3,2.3368497267168635,1.370869645443961,0
sbt_20633,3.817986446149356,163.8,2.330883056257238,1.5383441447976602,0
sbt_4619,4.99159994234188,216.3,2.307720731549644,1.0847361734276444,0
smt_37964,4.948672886788462,216.3,2.287874658709414,1.3460613674177726,0
smt_37965,4.947218496660892,216.3,2.287202263828429,1.3459188849314216,0
smt_37994,4.947028630040784,216.3,2.2871144845311067,1.3458901059586295,0
smt_37995,4.947024140071288,216.3,2.2871124087245898,1.3458898082097697,0
smt_37996,4.947018730393184,216.3,2.287109907717607,1.3459079286930882,0
smt_37966,4.946689809057956,216.3,2.286957840526101,1.3458812506930096,0
smt_37967,4.9462877056948695,216.3,2.286771939757221,1.3458444633000057,0
smt_37968,4.94587541095903,216.3,2.286581327304221,1.3458061389146039,0
smt_37969,4.945470765010436,216.3,2.2863942510450466,1.3457637936258926,0
rbt_606110,1.3873335196780816,61.95,2.2394407097305593,1.0521814739011395,0
rbt_1607284,2.014668999438802,90.3,2.2310841632766354,1.0488722294126338,0
rbt_1607302,1.3655466020917566,61.95,2.2042721583402045,1.0356261325324865,0
rbt_607382,1.9696225887462713,90.3,2.181198880117687,1.0254776607602276,0
rbt_1607273,1.6707567864449013,76.65,2.179721834892239,1.0242326388802503,0
sbt_26614,3.531320884863881,162.75,2.1697824177351035,1.6433791603999321,0
sbt_26512,3.5313192972833827,162.75,2.169781442263215,1.6433781728317627,0
sbt_16246,3.5313187185492922,162.75,2.1697810866662315,1.6433778134195112,0
sbt_5828,3.531315978518743,163.8,2.155870560756253,1.6328416530564567,0
sbt_3790,3.506267686939107,163.8,2.140578563454888,1.0056357669225828,0
rbt_1137150,1.3181787975754842,61.95,2.1278108112598613,1.0003061331518175,0
rbt_3405843,1.9159727636034203,90.3,2.121786006205338,0.9977499850598547,0
rbt_1607288,1.6104676490530672,76.65,2.1010667306628403,0.9875317856839839,0
rbt_605817,1.6020966635424452,76.65,2.0901456797683564,0.9824603712523504,0
smt_13591,3.4036826013071293,163.8,2.0779503060483084,1.0304790853642198,0
sbt_30492,2.5858954283212015,124.95,2.06954416032109,0.9725920095776374,0
rbt_607387,1.8592848712970154,90.3,2.0590087168294744,0.9676225993927376,0
sbt_21147,2.6343382875399057,128.1,2.056470169820379,0.9663608476336732,0
sbt_17923,2.6343328049530563,128.1,2.0564658898930963,0.9663565281350922,0
rbt_626695,1.8512215694076604,90.3,2.050079257372824,1.552988474798828,0
rbt_623432,1.8511362253644943,90.3,2.049984745697114,0.9638949532728098,0
sbt_3473,3.335272635704212,163.8,2.0361859802834017,0.9571463038514882,0
sbt_26790,4.39299884438963,216.3,2.030974962732145,0.9549605324498806,0
smt_18691,5.799090686221807,286.65,2.0230562310210387,1.0632100409759386,0
smt_18692,5.7983895455144365,286.65,2.0228116328325263,1.0630298749629994,0
smt_22142,5.797764609827063,286.65,2.0225936193361465,1.0628697302527488,0
smt_29410,5.797197519790235,286.65,2.022395785728322,1.0627247686621046,0
smt_4821,5.796656541586875,286.65,2.0222070614292256,1.062586801733768,0
smt_18693,5.795997799852777,286.65,2.0219772544401806,1.0624192242481456,0
smt_5832,5.795390822036723,286.65,2.0217655056817456,1.062265227331422,0
smt_18694,5.7947553062828145,286.65,2.0215438012498916,1.0621044151828918,0
smt_5643,5.794195266716683,286.65,2.0213484272515903,1.0619630632259662,0
smt_29483,5.793638710954177,286.65,2.021154268604283,1.0618229271098303,0
smt_6014,5.793087536131331,286.65,2.020961987138089,1.061684477394401,0
smt_18695,5.792451771259905,286.65,2.0207401957997226,1.061525190458305,0
smt_29482,5.791886568938805,286.65,2.0205430207356727,1.0613839532253107,0
smt_6195,5.791294240625163,286.65,2.0203363825659038,1.061236313075043,0
smt_6105,5.790699854756576,286.65,2.020129026602678,1.0610885475313039,0
smt_19334,5.752319032088783,286.65,2.0067395890768474,1.0414939277606419,0
smt_19331,5.751698790060531,286.65,2.0065232129986157,1.041303967738633,0
smt_22269,5.751089673296384,286.65,2.006310718052114,1.0411177359644797,0
sbt_34896,4.294957117344346,216.3,1.9856482280833774,0.9333878642471313,0
sbt_34381,3.207694573607978,163.8,1.958299495487166,0.9205769407192146,0
smt_29480,5.532297416942006,286.65,1.9299834002937402,1.0632346557487315,0
smt_19271,5.5311275798854975,286.65,1.929575293872492,1.0629831482689713,0
smt_5537,5.530663143370198,286.65,1.929413271714704,1.062883748421999,0
rbt_605808,1.7360118250006713,90.3,1.9224937153938777,0.9032815543538303,0
smt_19274,5.510128046560767,286.65,1.9222494493496483,1.0503096908078338,0
smt_4942,5.509582467856508,286.65,1.922059120131348,1.0501911277214417,0
smt_18740,5.50905012414381,286.65,1.921873408039006,1.050075783048592,0
smt_5191,5.5085202355234255,286.65,1.9216885524240106,1.0499613069318665,0
smt_5198,5.507995349409269,286.65,1.92150544197079,1.0498482435392953,0
smt_5549,5.507416858637051,286.65,1.921303631131014,1.049724017237493,0
smt_19273,5.5068251892449736,286.65,1.9210972228309693,1.0495973784945396,0
smt_5414,5.50632850399248,286.65,1.9209239504596127,1.0494913967950332,0
smt_5522,5.505776242187026,286.65,1.9207312897913924,1.0493739076540896,0
rbt_1607326,1.732826505116475,90.3,1.918966229364867,0.9022332976946011,0
smt_40861,5.479834378014067,286.65,1.9116812761256121,1.0333573457093663,0
smt_40860,5.479477970490199,286.65,1.9115569406908073,1.033279543996917,0
smt_40859,5.479103302959132,286.65,1.9114262351156923,1.0331979219573544,0
smt_40858,5.4787234333725525,286.65,1.9112937147645397,1.0331153403772144,0
smt_40375,3.1305515082374322,163.8,1.9112036069825593,0.9512825093025481,0
smt_40857,5.478257206922544,286.65,1.9111310681746188,1.0330142249258134,0
smt_40856,5.477787295295754,286.65,1.9109671359831695,1.0329125780536963,0
smt_40374,3.1299995221373673,163.8,1.9108666191314818,0.9509546881947877,0
smt_40855,5.4773286856618615,286.65,1.9108071465766132,1.0328136358019988,0
smt_40854,5.476894987060776,286.65,1.9106558475704785,1.0327203046797435,0
smt_40358,3.1294504076387857,163.8,1.9105313843948628,0.95062931638832,0
smt_40853,5.476426743794565,286.65,1.9104924973991158,1.0326197985833139,0
smt_40852,5.475955739366748,286.65,1.9103281839758413,1.0325189717194532,0
smt_22899,5.475727964322991,286.65,1.9102487229454008,1.0252137868306548,0
smt_5757,5.475709320137196,286.65,1.9102422187815093,1.0254583845183607,0
smt_40357,3.1288722808888485,163.8,1.9101784376610795,0.9502875600417009,0
smt_5956,5.4751670754485975,286.65,1.9100530526595494,1.0250746399685577,0
smt_6028,5.475125195331313,286.65,1.9100384424668808,1.0253144030402432,0
smt_40356,3.1283853735720233,163.8,1.9098811804469005,0.9500003728006203,0
smt_22898,5.474531862882001,286.65,1.909831453996861,1.025168549195021,0
smt_16985,5.474049305217361,286.65,1.9096631101403667,1.0250502188018962,0
smt_40355,3.127829318029535,163.8,1.9095417081987391,0.9496731262914624,0
smt_6106,5.4734936032385715,286.65,1.9094692493419057,1.0249142785735075,0
smt_6021,5.472943158975222,286.65,1.9092772227368646,1.024779969673166,0
smt_40354,3.1272643090056955,163.8,1.9091967698447467,0.9493414074976374,0
smt_6212,5.472407957098949,286.65,1.909090513552747,1.0246497102735033,0
smt_6044,5.471851884619974,286.65,1.9088965235025204,1.0245147173273221,0
smt_40353,3.126692740413743,163.8,1.908847826870417,0.9490066597178194,0
smt_6029,5.471309732740853,286.65,1.9087073897578417,1.0243834442644597,0
smt_40352,3.126215591148888,163.8,1.9085565269529228,0.9487278468297858,0
smt_19276,5.470768009590103,286.65,1.9085184055782671,1.024252611755868,0
smt_22896,5.470149508049632,286.65,1.908302636682237,1.0241036491298787,0
smt_40351,3.1257634181180594,163.8,1.9082804750415503,0.9484641658265104,0
smt_6693,5.469732082300982,286.65,1.9081570145825857,1.024003363896478,0
smt_41231,5.469715160509049,286.65,1.9081511112886966,1.0239993029212657,0
smt_41232,5.469125717542312,286.65,1.9079454796938118,1.0238580460352578,0
...